[TITLE]

[JUNCTIONS]
1 	 90.000000
2 	 90.000000
3 	 90.000000
4 	 88.000000
5 	 88.000000
6 	 88.000000
7 	 85.000000
8 	 85.000000
9 	 85.000000
1-J 	 90.000000
2-J 	 90.000000
3-J 	 90.000000
4-J 	 88.000000
5-J 	 88.000000
6-J 	 88.000000
7-J 	 85.000000
8-J 	 85.000000
9-J 	 85.000000

[RESERVOIRS]
R1 	 100.000000
R2 	 98.000000
1-R 	 90.000000
2-R 	 90.000000
3-R 	 90.000000
4-R 	 88.000000
5-R 	 88.000000
6-R 	 88.000000
7-R 	 85.000000
8-R 	 85.000000
9-R 	 85.000000

[PIPES]
1 	 R1 	 1 	 1000.000000 	 300.000000 	 130.000000 	 0.000000 	 
2 	 R2 	 3 	 1000.000000 	 300.000000 	 130.000000 	 0.000000 	 
3 	 1 	 2 	 1000.000000 	 300.000000 	 130.000000 	 0.000000 	 
4 	 1 	 4 	 1000.000000 	 300.000000 	 130.000000 	 0.000000 	 
5 	 2 	 3 	 1000.000000 	 300.000000 	 130.000000 	 0.000000 	 
6 	 2 	 5 	 1000.000000 	 300.000000 	 130.000000 	 0.000000 	 
7 	 3 	 6 	 1000.000000 	 300.000000 	 130.000000 	 0.000000 	 
8 	 4 	 5 	 1000.000000 	 250.000000 	 130.000000 	 0.000000 	 
9 	 4 	 7 	 1000.000000 	 250.000000 	 130.000000 	 0.000000 	 
10 	 5 	 6 	 1000.000000 	 250.000000 	 130.000000 	 0.000000 	 
11 	 5 	 8 	 1000.000000 	 250.000000 	 130.000000 	 0.000000 	 
12 	 6 	 9 	 1000.000000 	 250.000000 	 130.000000 	 0.000000 	 
13 	 7 	 8 	 1000.000000 	 200.000000 	 130.000000 	 0.000000 	 
14 	 8 	 9 	 1000.000000 	 200.000000 	 130.000000 	 0.000000 	 
1-R-P 	 1-R 	 1 	 1.000000 	 300.000000 	 1000000.000000 	 0.000000 	 CLOSED
2-R-P 	 2-R 	 2 	 1.000000 	 300.000000 	 1000000.000000 	 0.000000 	 CLOSED
3-R-P 	 3-R 	 3 	 1.000000 	 300.000000 	 1000000.000000 	 0.000000 	 CLOSED
4-R-P 	 4-R 	 4 	 1.000000 	 300.000000 	 1000000.000000 	 0.000000 	 CLOSED
5-R-P 	 5-R 	 5 	 1.000000 	 300.000000 	 1000000.000000 	 0.000000 	 CLOSED
6-R-P 	 6-R 	 6 	 1.000000 	 300.000000 	 1000000.000000 	 0.000000 	 CLOSED
7-R-P 	 7-R 	 7 	 1.000000 	 300.000000 	 1000000.000000 	 0.000000 	 CLOSED
8-R-P 	 8-R 	 8 	 1.000000 	 300.000000 	 1000000.000000 	 0.000000 	 CLOSED
9-R-P 	 9-R 	 9 	 1.000000 	 300.000000 	 1000000.000000 	 0.000000 	 CLOSED
1-J-P 	 1-J 	 1 	 1.000000 	 300.000000 	 1000000.000000 	 0.000000 	 CLOSED
2-J-P 	 2-J 	 2 	 1.000000 	 300.000000 	 1000000.000000 	 0.000000 	 CLOSED
3-J-P 	 3-J 	 3 	 1.000000 	 300.000000 	 1000000.000000 	 0.000000 	 CLOSED
4-J-P 	 4-J 	 4 	 1.000000 	 300.000000 	 1000000.000000 	 0.000000 	 CLOSED
5-J-P 	 5-J 	 5 	 1.000000 	 300.000000 	 1000000.000000 	 0.000000 	 CLOSED
6-J-P 	 6-J 	 6 	 1.000000 	 300.000000 	 1000000.000000 	 0.000000 	 CLOSED
7-J-P 	 7-J 	 7 	 1.000000 	 300.000000 	 1000000.000000 	 0.000000 	 CLOSED
8-J-P 	 8-J 	 8 	 1.000000 	 300.000000 	 1000000.000000 	 0.000000 	 CLOSED
9-J-P 	 9-J 	 9 	 1.000000 	 300.000000 	 1000000.000000 	 0.000000 	 CLOSED

[EMITTERS]
1-J 	 0.000000
2-J 	 0.000000
3-J 	 0.000000
4-J 	 0.000000
5-J 	 0.000000
6-J 	 0.000000
7-J 	 0.000000
8-J 	 0.000000
9-J 	 0.000000

[ENERGY]
GLOBAL	EFFIC	75.0000	
DEMAND	CHARGE	0.0000	

[DEMANDS]
1 	 0.000000 	
2 	 0.000000 	
3 	 0.000000 	
4 	 0.000000 	
5 	 0.000000 	
6 	 0.000000 	
7 	 0.000000 	
8 	 0.000000 	
9 	 0.000000 	
1-J 	 0.000000 	
2-J 	 0.000000 	
3-J 	 0.000000 	
4-J 	 0.000000 	
5-J 	 0.000000 	
6-J 	 0.000000 	
7-J 	 0.000000 	
8-J 	 0.000000 	
9-J 	 0.000000 	

[REACTIONS]
ORDER	BULK	1.000000
ORDER	WALL	1.000000
ORDER	TANK	1.000000
GLOBAL	BULK	0.000000
GLOBAL	WALL	0.000000

[OPTIONS]
UNITS 	 LPS 	 
PRESSURE 	 METERS 	 
HEADLOSS 	 H-W 	 
UNBALANCED 	 CONTINUE 	 10
QUALITY 	 NONE 	 
DEMAND 	 MULTIPLIER 	 1.0000
EMITTER 	 EXPONENT 	 0.5000
VISCOSITY 	 1.000000 	 
DIFFUSIVITY 	 1.000000 	 
SPECIFIC 	 GRAVITY 	 1.000000
TRIALS 	 40 	 
ACCURACY 	 0.00100000 	 
TOLERANCE 	 0.01000000 	 
CHECKFREQ 	 2 	 
MAXCHECK 	 10 	 
DAMPLIMIT 	 0.00000000 	 

[TIMES]
DURATION 	 0:00:00 	 
HYDRAULIC 	 TIMESTEP 	 1:00:00
QUALITY 	 TIMESTEP 	 0:05:00
REPORT 	 TIMESTEP 	 1:00:00
REPORT 	 START 	 0:00:00
PATTERN 	 TIMESTEP 	 1:00:00
PATTERN 	 START 	 0:00:00
RULE 	 TIMESTEP 	 0:06:00
START 	 CLOCKTIME 	 0:00:00
STATISTIC 	 NONE 	 

[REPORT]
PAGESIZE 	 0 	 
STATUS 	 NO 	 
SUMMARY 	 NO 	 
ENERGY 	 NO 	 
NODES 	 NONE 	 
LINKS 	 NONE 	 
Elevation 	 NO 	 
Demand 	 PRECISION 	 2
Head 	 PRECISION 	 2
Pressure 	 PRECISION 	 2
Quality 	 NO 	 
Length 	 NO 	 
Diameter 	 NO 	 
Flow 	 PRECISION 	 2
Velocity 	 PRECISION 	 2
Headloss 	 PRECISION 	 2
Quality 	 NO 	 
State 	 NO 	 
Setting 	 NO 	 
Reaction 	 NO 	 

[COORDINATES]
1 	 4000.000000 	 7000.000000
2 	 3000.000000 	 7000.000000
3 	 2000.000000 	 7000.000000
4 	 4000.000000 	 6000.000000
5 	 3000.000000 	 6000.000000
6 	 2000.000000 	 6000.000000
7 	 4000.000000 	 5000.000000
8 	 3000.000000 	 5000.000000
9 	 2000.000000 	 5000.000000
R1 	 4000.000000 	 8000.000000
R2 	 2000.000000 	 8000.000000
1-R 	 4000.000000 	 7000.000000
2-R 	 3000.000000 	 7000.000000
3-R 	 2000.000000 	 7000.000000
4-R 	 4000.000000 	 6000.000000
5-R 	 3000.000000 	 6000.000000
6-R 	 2000.000000 	 6000.000000
7-R 	 4000.000000 	 5000.000000
8-R 	 3000.000000 	 5000.000000
9-R 	 2000.000000 	 5000.000000
1-J 	 4000.000000 	 7000.000000
2-J 	 3000.000000 	 7000.000000
3-J 	 2000.000000 	 7000.000000
4-J 	 4000.000000 	 6000.000000
5-J 	 3000.000000 	 6000.000000
6-J 	 2000.000000 	 6000.000000
7-J 	 4000.000000 	 5000.000000
8-J 	 3000.000000 	 5000.000000
9-J 	 2000.000000 	 5000.000000

[BACKDROP]
DIMENSIONS 	 0.00 	 0.00 	 10000.00 	 10000.00
UNITS 	 None 	  	  	 
FILE 	  	  	  	 
OFFSET 	 0.00 	 0.00 	  	 

[END]