[TITLE]

[JUNCTIONS]
 2                                    33.0000
 3                                    15.0000
 4                                    15.0000
 5                                    15.0000

[RESERVOIRS]
 1                                    35.0000 

[TANKS]

[PIPES]
 1                               1                               2                                   100.0000     300.0000     100.0000       0.0000 
 2                               2                               3                                   300.0000     300.0000     100.0000       0.0000 
 3                               2                               4                                   100.0000     200.0000     100.0000       0.0000 
 4                               3                               5                                   100.0000     200.0000     100.0000       0.0000 
 5                               4                               5                                   300.0000     200.0000     100.0000       0.0000 
 6                               1                               4                                   200.0000     300.0000     100.0000       0.0000 

[PUMPS]

[VALVES]

[DEMANDS]
 2                                     0.000000 
 3                                    78.662071 
 4                                    19.165747 
 5                                   129.415390 

[EMITTERS]

[STATUS]

[PATTERNS]

[CURVES]

[CONTROLS]

[QUALITY]

[SOURCES]

[MIXING]

[REACTIONS]
 ORDER  BULK            1.00
 ORDER  WALL            1
 ORDER  TANK            1.00
 GLOBAL BULK            0.000000
 GLOBAL WALL            0.000000

[ENERGY]
 GLOBAL EFFIC        75.0000
 DEMAND CHARGE       0.0000

[TIMES]
 DURATION            0:00:00
 HYDRAULIC TIMESTEP  1:00:00
 QUALITY TIMESTEP    0:05:00
 REPORT TIMESTEP     1:00:00
 REPORT START        0:00:00
 PATTERN TIMESTEP    1:00:00
 PATTERN START       0:00:00
 RULE TIMESTEP       0:06:00
 START CLOCKTIME     0:00:00
 STATISTIC           NONE

[OPTIONS]
 UNITS               LPS
 PRESSURE            METERS
 HEADLOSS            H-W
 UNBALANCED          CONTINUE 10
 QUALITY             NONE
 DEMAND MULTIPLIER   1.0000
 EMITTER EXPONENT    0.5000
 VISCOSITY           1.000000
 DIFFUSIVITY         1.000000
 SPECIFIC GRAVITY    1.000000
 TRIALS              40
 ACCURACY            0.00100000
 TOLERANCE           0.01000000
 CHECKFREQ           2
 MAXCHECK            10
 DAMPLIMIT           0.00000000

[REPORT]
 PAGESIZE            0
 STATUS              NO
 SUMMARY             NO
 ENERGY              NO
 NODES               NONE
 LINKS               NONE
 Elevation           NO
 Demand              PRECISION 2
 Head                PRECISION 2
 Pressure            PRECISION 2
 Quality             NO
 Length              NO
 Diameter            NO
 Flow                PRECISION 2
 Velocity            PRECISION 2
 Headloss            PRECISION 2
 Quality             NO
 State               NO
 Setting             NO
 Reaction            NO
[TAGS]

[RULES]


[COORDINATES]
;Node            	X-Coord         	Y-Coord
 2               	2832.41         	7548.48         
 3               	7361.50         	7562.33         
 4               	2832.41         	5277.01         
 5               	7361.50         	5277.01         
 1               	228.53          	7548.48         

[VERTICES]
;Link            	X-Coord         	Y-Coord

[LABELS]
;X-Coord           Y-Coord          Label & Anchor Node

[BACKDROP]
 DIMENSIONS     	0.00            	0.00            	10000.00        	10000.00        
 UNITS          	None
 FILE           	
 OFFSET         	0.00            	0.00            


[END]