[TITLE]


[JUNCTIONS]
;ID              	Elev        	Demand      	Pattern         
 1               	6.096000    	31.500000   	1               	;
 2               	15.240000   	12.600000   	1               	;
 3               	15.240000   	12.600000   	1               	;
 4               	15.240000   	37.800000   	1               	;
 5               	24.384000   	37.800000   	1               	;
 6               	24.384000   	37.800000   	1               	;
 7               	24.384000   	37.800000   	1               	;
 8               	24.384000   	25.200000   	1               	;
 9               	36.576000   	25.200000   	1               	;
 10              	36.576000   	25.200000   	1               	;
 11              	36.576000   	25.200000   	1               	;
 12              	15.240000   	31.500000   	1               	;
 13              	15.240000   	31.500000   	1               	;
 14              	15.240000   	31.500000   	1               	;
 15              	15.240000   	31.500000   	1               	;
 16              	36.576000   	25.200000   	1               	;
 17              	36.576000   	63.000000   	1               	;
 18              	15.240000   	31.500000   	1               	;
 19              	15.240000   	63.000000   	1               	;
 20              	6.096000    	0.000000    	1               	;
 21              	15.240000   	0.000000    	1               	;
 22              	36.576000   	0.000000    	1               	;

[RESERVOIRS]
;ID              	Head        	Pattern         
 40              	3.048000    	                	;

[TANKS]
;ID              	Elevation   	InitLevel   	MinLevel    	MaxLevel    	Diameter    	MinVol      	VolCurve
 41              	65.532000   	10.668000   	3.048000    	10.668000   	0.924544    	52.0000001  	                	;
 42              	65.532000   	10.668000   	3.048000    	10.668000   	0.924544    	52.0000002  	                	;

[PIPES]
;ID              	Node1           	Node2           	Length      	Diameter    	Roughness   	MinorLoss   	Status
 1               	1               	2               	3657.600000 	304.800000  	120.000000  	0.000000    	Open  	;
 2               	1               	12              	3657.600000 	304.800000  	70.000000   	0.000000    	Open  	;
 3               	1               	13              	3657.600000 	406.400000  	70.000000   	0.000000    	Open  	;
 4               	1               	20              	30.480000   	762.000000  	130.000000  	0.000000    	Open  	;
 5               	2               	3               	1828.800000 	254.000000  	120.000000  	0.000000    	Open  	;
 6               	2               	4               	2743.200000 	254.000000  	120.000000  	0.000000    	Open  	;
 7               	2               	13              	2743.200000 	304.800000  	70.000000   	0.000000    	Open  	;
 8               	2               	14              	1828.800000 	254.000000  	120.000000  	0.000000    	Open  	;
 9               	3               	4               	1828.800000 	254.000000  	120.000000  	0.000000    	Open  	;
 11              	4               	8               	3657.600000 	203.200000  	120.000000  	0.000000    	Open  	;
 12              	4               	15              	1828.800000 	254.000000  	120.000000  	0.000000    	Open  	;
 17              	8               	9               	3657.600000 	203.200000  	120.000000  	0.000000    	Open  	;
 18              	8               	15              	1828.800000 	254.000000  	120.000000  	0.000000    	Open  	;
 19              	8               	16              	1828.800000 	203.200000  	120.000000  	0.000000    	Open  	;
 20              	8               	17              	1828.800000 	203.200000  	120.000000  	0.000000    	Open  	;
 21              	9               	10              	1828.800000 	203.200000  	120.000000  	0.000000    	Open  	;
 22              	10              	11              	1828.800000 	203.200000  	120.000000  	0.000000    	Open  	;
 23              	10              	17              	1828.800000 	254.000000  	120.000000  	0.000000    	Open  	;
 24              	11              	12              	1828.800000 	203.200000  	120.000000  	0.000000    	Open  	;
 26              	12              	17              	1828.800000 	254.000000  	120.000000  	0.000000    	Open  	;
 27              	12              	18              	1828.800000 	203.200000  	70.000000   	0.000000    	Open  	;
 28              	13              	14              	1828.800000 	304.800000  	70.000000   	0.000000    	Open  	;
 29              	13              	18              	1828.800000 	304.800000  	70.000000   	0.000000    	Open  	;
 30              	13              	19              	1828.800000 	254.000000  	70.000000   	0.000000    	Open  	;
 31              	14              	15              	1828.800000 	304.800000  	70.000000   	0.000000    	Open  	;
 32              	14              	19              	1828.800000 	254.000000  	70.000000   	0.000000    	Open  	;
 33              	14              	21              	30.480000   	304.800000  	120.000000  	0.000000    	Open  	;
 34              	15              	16              	1828.800000 	254.000000  	70.000000   	0.000000    	Open  	;
 35              	15              	19              	1828.800000 	254.000000  	70.000000   	0.000000    	Open  	;
 36              	16              	17              	1828.800000 	203.200000  	120.000000  	0.000000    	Open  	;
 37              	16              	18              	1828.800000 	304.800000  	70.000000   	0.000000    	Open  	;
 38              	16              	19              	1828.800000 	254.000000  	70.000000   	0.000000    	Open  	;
 39              	17              	18              	1828.800000 	203.200000  	120.000000  	0.000000    	Open  	;
 40              	17              	22              	30.480000   	304.800000  	120.000000  	0.000000    	Open  	;
 41              	18              	19              	1828.800000 	254.000000  	70.000000   	0.000000    	Open  	;
 142             	21              	41              	0.304800    	304.800000  	120.000000  	0.000000    	Open  	;
 143             	22              	42              	0.304800    	304.800000  	120.000000  	0.000000    	Open  	;
 110             	4               	5               	1828.800000 	254.000000  	130.000000  	0.000000    	Open  	;
 113             	5               	6               	1828.800000 	254.000000  	130.000000  	0.000000    	Open  	;
 114             	6               	7               	1828.800000 	254.000000  	130.000000  	0.000000    	Open  	;
 115             	6               	8               	1828.800000 	254.000000  	130.000000  	0.000000    	Open  	;
 116             	7               	8               	1828.800000 	254.000000  	130.000000  	0.000000    	Open  	;
 125             	11              	17              	2743.200000 	254.000000  	130.000000  	0.000000    	Open  	;

[PUMPS]
;ID              	Node1           	Node2           	Parameters
 78              	40              	20              	HEAD 2	;
 79              	40              	20              	HEAD 2	;
 80              	40              	20              	HEAD 2	;

[VALVES]
;ID              	Node1           	Node2           	Diameter    	Type	Setting     	MinorLoss   

[TAGS]

[DEMANDS]
;Junction        	Demand      	Pattern         	Category

[STATUS]
;ID              	Status/Setting

[PATTERNS]
;ID              	Multipliers
;
 6               	0.100000    	0.100000    	0.100000    	0.090000    	0.090000    	0.090000    
 6               	0.070000    	0.070000    	0.070000    	0.060000    	0.060000    	0.060000    
 6               	0.120000    	0.120000    	0.120000    	0.130000    	0.130000    	0.130000    
 6               	0.120000    	0.120000    	0.120000    	0.110000    	0.110000    	0.110000    
;
 2               	0.000000    	0.000000    	0.000000    	0.000000    	0.000000    	0.000000    
 2               	0.000000    	0.000000    	0.000000    	0.000000    	0.000000    	0.000000    
 2               	0.000000    	0.000000    	0.000000    	0.000000    	0.000000    	0.000000    
 2               	0.000000    	0.000000    	0.000000    	0.000000    	0.000000    	0.000000    
;
 3               	0.000000    	0.000000    	0.000000    	0.000000    	0.000000    	0.000000    
 3               	0.000000    	0.000000    	0.000000    	0.000000    	0.000000    	0.000000    
 3               	0.000000    	0.000000    	0.000000    	0.000000    	0.000000    	0.000000    
 3               	0.000000    	0.000000    	0.000000    	0.000000    	0.000000    	0.000000    
;
 4               	0.000000    	0.000000    	0.000000    	0.000000    	0.000000    	0.000000    
 4               	0.000000    	0.000000    	0.000000    	0.000000    	0.000000    	0.000000    
 4               	0.000000    	0.000000    	0.000000    	0.000000    	0.000000    	0.000000    
 4               	0.000000    	0.000000    	0.000000    	0.000000    	0.000000    	0.000000    
;
 5               	1           	1           	1           	0.9         	0.9         	0.9         
 5               	0.6         	0.6         	0.6         	1.2         	1.2         	1.2         
 5               	1.2         	1.2         	1.2         	1.3         	1.3         	1.3         
 5               	1.2         	1.2         	1.2         	1.1         	1.1         	1.1         
;
 1               	0.5         	0.5         	0.5         	0.45        	0.45        	0.45        
 1               	0.35        	0.35        	0.35        	0.3         	0.3         	0.3         
 1               	0.6         	0.6         	0.6         	0.65        	0.65        	0.65        
 1               	0.6         	0.6         	0.6         	0.55        	0.55        	0.55        

[CURVES]
;ID              	X-Value     	Y-Value
;PUMP: PUMP: 
 2               	0.000000    	91.44       
 2               	126.000000  	89.0016000  
 2               	252.000000  	82.2960000  
 2               	378.000000  	70.1040000  
 2               	504.000000  	55.1688000  
;PUMP: PUMP: 
 E1              	0.000000    	0.000000    
 E1              	126.000000  	50.000000   
 E1              	252.000000  	65.000000   
 E1              	378.000000  	55.000000   
 E1              	504.000000  	40.000000   

[CONTROLS]


[RULES]


[ENERGY]
 Global Efficiency  	75.0000
 Global Price       	0
 Demand Charge      	0.0000
 Pump 	78              	Efficiency	E1
 Pump 	79              	Efficiency	E1
 Pump 	80              	Efficiency	E1

[EMITTERS]
;Junction        	Coefficient

[QUALITY]
;Node            	InitQual

[SOURCES]
;Node            	Type        	Quality     	Pattern

[REACTIONS]
;Type     	Pipe/Tank       	Coefficient


[REACTIONS]
 Order Bulk            	1.000000
 Order Tank            	1.000000
 Order Wall            	1
 Global Bulk           	0.000000
 Global Wall           	0.000000
 Limiting Potential    	0
 Roughness Correlation 	0

[MIXING]
;Tank            	Model

[TIMES]
 Duration           	24:00 
 Hydraulic Timestep 	1:00 
 Quality Timestep   	1:00 
 Pattern Timestep   	1:00 
 Pattern Start      	0:00 
 Report Timestep    	1:00 
 Report Start       	0:00 
 Start ClockTime    	18:00:00
 Statistic          	NONE

[REPORT]
 Status             	No
 Summary            	No
 Page               	0

[OPTIONS]
 Units              	LPS
 Headloss           	H-W
 Specific Gravity   	1.000000
 Viscosity          	1.000000
 Trials             	40
 Accuracy           	0.00100000
 CHECKFREQ          	2
 MAXCHECK           	10
 DAMPLIMIT          	0.00000000
 Unbalanced         	Continue 10
 Pattern            	1
 Demand Multiplier  	1.0000
 Emitter Exponent   	0.5000
 Quality            	NONE mg/L
 Diffusivity        	1.000000
 Tolerance          	0.01000000

[COORDINATES]
;Node            	X-Coord         	Y-Coord
 1               	7682.33         	3371.15         
 2               	7633.71         	5737.44         
 3               	7520.26         	7293.35         
 4               	6175.04         	7568.88         
 5               	5591.57         	8460.29         
 6               	4100.49         	8071.31         
 7               	3192.87         	7763.37         
 8               	3321.19         	6696.55         
 9               	1305.62         	4850.97         
 10              	2317.45         	3588.20         
 11              	3701.63         	2892.06         
 12              	4846.03         	3354.94         
 13              	6450.57         	4424.64         
 14              	6466.77         	5769.85         
 15              	5094.45         	6482.09         
 16              	4017.86         	5615.96         
 17              	3005.49         	4292.43         
 18              	4846.03         	4440.84         
 19              	5332.25         	5332.25         
 20              	8544.18         	3371.15         
 21              	6094.00         	6499.19         
 22              	2422.68         	4519.09         
 40              	8700.60         	3371.15         
 41              	6094.00         	6600.19         
 42              	2422.68         	4700.09         

[VERTICES]
;Link            	X-Coord         	Y-Coord

[LABELS]
;X-Coord           Y-Coord          Label & Anchor Node

[BACKDROP]
 DIMENSIONS     	935.87          	2613.65         	9070.35         	8738.70         
 UNITS          	None
 FILE           	
 OFFSET         	0.00            	0.00            

[END]
